* Parallel RC
* Time step: 0.1s, Stop time: 1.0s
.tran 0.1 1.0

I1 1 0 10.0
R1 1 0 1.0
C1 1 0 1.0