V1 2 0 4.78
R1 2 1 10000
C1 1 0 0.000105
.tran 0.05 10.0